.include "C:/Users/User/Documents/50.002/50002/nominal.jsim"
.include "C:/Users/User/Documents/50.002/50002/stdcell.jsim"
.include "C:/Users/User/Documents/50.002/50002/lab3compare.jsim"

.subckt compare32 ALUFN[2:1] z v n cmp[31:0]
Xmux ALUFN1 ALUFN2 0 z 1 2 cmp0 mux4 
Xxor v n 1 xor2
Xor z 1 2 or2
.connect 0 cmp[31:1]
.ends